Version 4
SHEET 1 1148 680
WIRE 416 16 384 16
WIRE 528 16 480 16
WIRE -16 96 -112 96
WIRE 80 96 -16 96
WIRE 128 96 80 96
WIRE 256 96 208 96
WIRE 384 96 384 16
WIRE 384 96 256 96
WIRE 528 96 528 16
WIRE 656 96 528 96
WIRE 736 96 656 96
WIRE 848 96 736 96
WIRE -112 128 -112 96
WIRE -16 128 -16 96
WIRE 384 128 384 96
WIRE 416 128 384 128
WIRE 528 128 528 96
WIRE 528 128 496 128
WIRE 736 128 736 96
WIRE 80 144 80 96
WIRE 256 144 256 96
WIRE 656 176 656 96
WIRE -112 224 -112 208
WIRE -16 224 -16 208
WIRE 80 224 80 208
WIRE 256 224 256 208
WIRE 736 224 736 208
WIRE 656 272 656 256
WIRE 656 368 656 336
FLAG -16 224 0
FLAG 80 224 0
FLAG 256 224 0
FLAG 736 224 0
FLAG -112 224 0
FLAG 848 96 OUT
FLAG 256 96 F1
FLAG 656 368 0
SYMBOL ind 112 112 R270
WINDOW 0 32 56 VTop 2
WINDOW 3 5 56 VBottom 2
SYMATTR InstName L1
SYMATTR Value 6µ
SYMBOL cap 64 144 R0
SYMATTR InstName C1
SYMATTR Value 220p
SYMBOL cap 240 144 R0
SYMATTR InstName C2
SYMATTR Value 220p
SYMBOL res -32 112 R0
SYMATTR InstName R1
SYMATTR Value {Z}
SYMBOL res 720 112 R0
SYMATTR InstName R2
SYMATTR Value {Z}
SYMBOL current -112 208 R180
WINDOW 0 24 80 Left 2
WINDOW 3 24 0 Left 2
WINDOW 123 24 -28 Left 2
WINDOW 39 0 0 Left 0
SYMATTR InstName I1
SYMATTR Value ""
SYMATTR Value2 AC {2./Z}
SYMBOL ind 640 160 R0
SYMATTR InstName L3
SYMATTR Value 150n
SYMBOL cap 640 272 R0
SYMATTR InstName C5
SYMATTR Value 18p
SYMBOL cap 480 0 R90
WINDOW 0 0 32 VBottom 2
WINDOW 3 32 32 VTop 2
SYMATTR InstName C3
SYMATTR Value 405p
SYMBOL ind 400 144 R270
WINDOW 0 32 56 VTop 2
WINDOW 3 5 56 VBottom 2
SYMATTR InstName L2
SYMATTR Value 100n
TEXT 832 288 Left 2 !.ac lin 10K 100K 50000K
TEXT 832 320 Left 2 !.param Z=120R
