Version 4
SHEET 1 880 680
WIRE 80 96 -16 96
WIRE 128 96 80 96
WIRE 256 96 208 96
WIRE 352 96 256 96
WIRE -16 128 -16 96
WIRE 352 128 352 96
WIRE 80 144 80 96
WIRE 256 144 256 96
WIRE -16 224 -16 208
WIRE 80 224 80 208
WIRE 256 224 256 208
WIRE 352 224 352 208
WIRE 0 0 0 0
FLAG -16 224 0
FLAG 80 224 0
FLAG 256 224 0
FLAG 352 224 0
SYMBOL ind 112 112 R270
WINDOW 0 32 56 VTop 2
WINDOW 3 5 56 VBottom 2
SYMATTR InstName L1
SYMATTR Value 100n
SYMBOL cap 64 144 R0
SYMATTR InstName C1
SYMATTR Value 30p
SYMBOL cap 240 144 R0
SYMATTR InstName C2
SYMATTR Value 30p
SYMBOL res -32 112 R0
SYMATTR InstName R1
SYMATTR Value 75
SYMBOL res 336 112 R0
SYMATTR InstName R2
